#======================================================================

# CRYSTAL DATA

#----------------------------------------------------------------------

data_VESTA_phase_1


_pd_phase_name                         ''
_cell_length_a                         9.0347
_cell_length_b                         9.0347
_cell_length_c                         9.0347
_cell_angle_alpha                      90
_cell_angle_beta                       90
_cell_angle_gamma                      90
_symmetry_space_group_name_H-M         'F -4 3 m'
_symmetry_Int_Tables_number            216

loop_
_symmetry_equiv_pos_as_xyz
   'x, y, z'

loop_
   _atom_site_label
   _atom_site_occupancy
   _atom_site_fract_x
   _atom_site_fract_y
   _atom_site_fract_z
   _atom_site_adp_type
   _atom_site_B_iso_or_equiv
   _atom_site_type_symbol
   S0       1.0     -1.000000      -1.000000      -1.000000     Biso  1.000000 S
   S1       1.0     -1.000000      -1.000000      1.000000     Biso  1.000000 S
   S2       1.0     -1.000000      0.000000      0.000000     Biso  1.000000 S
   S3       1.0     -1.000000      1.000000      -1.000000     Biso  1.000000 S
   S4       1.0     -1.000000      1.000000      1.000000     Biso  1.000000 S
   S5       1.0     -0.500000      -0.500000      -0.500000     Biso  1.000000 S
   S6       1.0     -0.500000      0.500000      0.500000     Biso  1.000000 S
   S7       1.0     0.000000      -1.000000      0.000000     Biso  1.000000 S
   S8       1.0     0.000000      0.000000      -1.000000     Biso  1.000000 S
   S9       1.0     0.000000      0.000000      1.000000     Biso  1.000000 S
   S10       1.0     0.000000      1.000000      0.000000     Biso  1.000000 S
   S11       1.0     0.500000      -0.500000      0.500000     Biso  1.000000 S
   S12       1.0     0.500000      0.500000      -0.500000     Biso  1.000000 S
   S13       1.0     1.000000      -1.000000      -1.000000     Biso  1.000000 S
   S14       1.0     1.000000      -1.000000      1.000000     Biso  1.000000 S
   S15       1.0     1.000000      0.000000      0.000000     Biso  1.000000 S
   S16       1.0     1.000000      1.000000      -1.000000     Biso  1.000000 S
   S17       1.0     1.000000      1.000000      1.000000     Biso  1.000000 S
